/*--------------------------------*- C++ -*----------------------------------*\
| =========                 |                                                 |
| \\      /  F ield         | OpenFOAM: The Open Source CFD Toolbox           |
|  \\    /   O peration     | Version:  4.1                                   |
|   \\  /    A nd           | Web:      www.OpenFOAM.org                      |
|    \\/     M anipulation  |                                                 |
\*---------------------------------------------------------------------------*/
FoamFile
{
    version     2.0;
    format      ascii;
    class       dictionary;
    object      blockMeshDict;
}
// * * * * * * * * * * * * * * * * * * * * * * * * * * * * * * * * * * * * * //

//convertToMeters 1;

lx 1;
ly 10;
lz 1;

vertices
(
    (0   0   0)
    ($lx 0   0)
    ($lx $ly 0)
    (0   $ly 0)
    (0   0   $lz)
    ($lx 0   $lz)
    ($lx $ly $lz)
    (0   $ly $lz)
);

blocks          
(
    hex (0 1 2 3 4 5 6 7) (1 100 1) simpleGrading (1 1 1)
);

edges           
(
);

boundary
(
    inlet
    {
        type patch;
        faces
        (
            (3 7 6 2)
        );
    }
    outlet
    {
        type wall;
        faces
        (
            (1 5 4 0)
        );
    }
    frontAndBack
    {
        type empty;
        faces
        (
            (0 4 7 3)
            (2 6 5 1)
            (0 3 2 1)
            (4 5 6 7)
        );
    }
);

mergePatchPairs
(
);
// ************************************************************************* //
