/*--------------------------------*- C++ -*----------------------------------*\
| =========                 |                                                 |
| \\      /  F ield         | foam-extend: Open Source CFD                    |
|  \\    /   O peration     | Version:     4.0                                |
|   \\  /    A nd           | Web:         http://www.foam-extend.org         |
|    \\/     M anipulation  |                                                 |
\*---------------------------------------------------------------------------*/
FoamFile
{
    version     2.0;
    format      ascii;
    class       dictionary;
    location    "constant";
    object      wellProperties;
}
// * * * * * * * * * * * * * * * * * * * * * * * * * * * * * * * * * * * * * //

wellModel peaceman;

wells
(
    //PROD0
    //{
    //    orientation         vertical;
    //    operationMode       production;
    //    radius              0.3;
    //    perforations
    //    (
    //        labelToCell { value  (0); }
    //    );
    //    imposedDrives
    //    (
    //        water.rate
    //        {
    //            fileName "inj.rate";
    //            outOfBounds warn;
    //        }
    //    );
    //}
    INJ0
    {
        orientation         vertical;
        operationMode       injection;
        radius              0.3;
        perforations
        (
            labelToCell { value  (0); }
        );
        imposedDrives
        (
            water.rate
            {
                fileName "inj.rate";
                outOfBounds warn;
            }
        );
    }
);


// ************************************************************************* //
