/*--------------------------------*- C++ -*----------------------------------*\
  | =========                 |                                                 |
  | \\      /  F ield         | OpenFOAM: The Open Source CFD Toolbox           |
  |  \\    /   O peration     | Version:  4.1                                   |
  |   \\  /    A nd           | Web:      www.OpenFOAM.com                      |
  |    \\/     M anipulation  |                                                 |
  \*---------------------------------------------------------------------------*/
FoamFile
{
  version     2.0;
  format      ascii;
  class       dictionary;
  location    "constant";
  object      transportProperties;
}
// * * * * * * * * * * * * * * * * * * * * * * * * * * * * * * * * * * * * * //

phases (water oil);

oil
{
    rhoSc   rhoSc [1 -3 0 0 0 0 0] 1000;
    wettingStatus   nonWetting;
    FVFModel        tabulated;
    FVFData
    {
        fileName    "PVT/iFVF";
        outOfBounds repeat;
    }
}
	
water
{
    rhoSc   rhoSc [1 -3 0 0 0 0 0] 1000;
    FVFModel        tabulated;
    FVFData
    {
        fileName    "PVT/iFVF";
        outOfBounds repeat;
    }
}

//// relative permeability model ////

relativePermeabilityModel   tabulated;
krData
{
    fileName "kr.dat";
    outOfBounds exit;
}
BrooksCoreyCoeffs
{
    n              1.0;
    water.alphaMin 0.2;
    oil.alphaMin   0.2;
    water.krMax    0.9;
    oil.krMax      0.5;
}
capillaryPressureModel      none;

bubblePointModel            constantPb;
constantPbCoeffs
{
    Pb                      -1e10;
}

// ************************************************************************* //
