/*--------------------------------*- C++ -*----------------------------------*\
| =========                 |                                                 |
| \\      /  F ield         | OpenFOAM: The Open Source CFD Toolbox           |
|  \\    /   O peration     | Version:  4.1                                   |
|   \\  /    A nd           | Web:      www.OpenFOAM.com                      |
|    \\/     M anipulation  |                                                 |
\*---------------------------------------------------------------------------*/
FoamFile
{
    version     2.0;
    format      ascii;
    class       dictionary;
    location    "system";
    object      fvSolution;
}
// * * * * * * * * * * * * * * * * * * * * * * * * * * * * * * * * * * * * * //

solvers
{
    Swp
    {
        solver           BiCGStab;
        preconditioner   Cholesky;

        tolerance        1e-12;
        relTol           0.0;

        minIter          1;
        maxIter          1000;
    }
    p
    {
        solver          BICCG;
        preconditioner  DILU;
        tolerance       1e-12;
        relTol          0.1;
    }

}

blockSolver
{
    pRefCell    0;
    pRefValue   100;
}

fieldBounds
{
    water.alpha 0.2 0.8;
}

// ************************************************************************* //
