/*--------------------------------*- C++ -*----------------------------------*\
| =========                 |                                                 |
| \\      /  F ield         | OpenFOAM: The Open Source CFD Toolbox           |
|  \\    /   O peration     | Version:  4.1                                   |
|   \\  /    A nd           | Web:      www.OpenFOAM.org                      |
|    \\/     M anipulation  |                                                 |
\*---------------------------------------------------------------------------*/
FoamFile
{
    version     2.0;
    format      ascii;
    class       dictionary;
    location    "constant";
    object      wellsProperties;
}
// * * * * * * * * * * * * * * * * * * * * * * * * * * * * * * * * * * * * * //

wellManagement simple;


wells 
(
    PROD
    {
        controlMode         flowRate;
        operationMode       production;
        orientation         verticalWell;
        radius              0.2;
        flowRateData
        {
            fileName            "constant/rates";
            outOfBounds         warn;
        }

        position            (45.5 45.5 0.5);
        perforations
        (
            oneInterval
            {
                p1    (45.5 45 0.5);
                p2    (45.5 45.5 0.5);
                radius 1;
            }
        );
    }
    INJ0
    {
        controlMode         flowRate;
        operationMode       injection;
        orientation         verticalWell;
        radius              0.3;
        flowRateData
        {
            fileName            "constant/rates";
            outOfBounds         warn;
        }

        perforations
        (
            twoIntervals
            {
                p1    (-45.5 -45.5 0.5);
                p2    (-45.5 -45 0.5);
                radius 1;
            }
        );
    }
);

// ************************************************************************* //
