FoamFile
{
    version     2.0;
    format      ascii;
    class       dictionary;
    location    "system";
    object      controlDict;
}

application     pSwCoupledFoam;

startFrom       latestTime;

startTime       0;

stopAt          endTime;

endTime         86400000; 

deltaT          100;  


writeControl    adjustableRunTime;

writeInterval   8640000; 

purgeWrite      0;

writeFormat     ascii;

writePrecision  6;

writeCompression off;

timeFormat      scientific;

timePrecision   6;

runTimeModifiable yes;

cflFactor       10;
dSmax           0.007;
Cm 0.75;
minDeltaT 1;

maxDeltaT  864000; 

libs
(
    "libreservoirBCs.so"
    "libreservoirProcessing.so"
    "libsampling.so"
);

functions
(
    wellFlowRate
    {
        type            wellFlowRate;
        functionObjectLibs ( "libreservoirProcessing.so");
        enabled         true;
        outputControl   timeStep;
        outputInterval  1;
        log 1;
        wells (PROD0 INJ0);
    }
    WriteWells
    {
        type writeRegisteredObject;
        functionObjectLibs ( "libIOFunctionObjects.so" );
        objectNames (PROD0 INJ0);
        outputControl outputTime;
        outputInterval       1;
    }
);
 
DebugSwitches
{
    
}



