FoamFile
{
    version     2.0;
    format      ascii;
    class       dictionary;
    location    "system";
    object      fvSolution;
}

solvers
{
    Swp
    {
        solver           BiCGStab;
        preconditioner   Cholesky;

        tolerance        1e-7;
        relTol           0.01;

        minIter          1;
        maxIter          1000;
    }
    p
    {
        solver          PCG;
        preconditioner  DIC;
        tolerance       1e-5;
        relTol          0.1;
    }

}

blockSolver
{
    pRefCell    1999;
    pRefValue   689e3;
}

fieldBounds
{
    water.alpha 0.0 0.75;
}

// ************************************************************************* //
