/*--------------------------------*- C++ -*----------------------------------*\
| =========                 |                                                 |
| \\      /  F ield         | foam-extend: Open Source CFD                    |
|  \\    /   O peration     | Version:     4.0                                |
|   \\  /    A nd           | Web:         http://www.foam-extend.org         |
|    \\/     M anipulation  |                                                 |
\*---------------------------------------------------------------------------*/
FoamFile
{
    version     2.0;
    format      ascii;
    class       dictionary;
    object      sampleDict;
}
// * * * * * * * * * * * * * * * * * * * * * * * * * * * * * * * * * * * * * //

interpolationScheme cellPointFace;

setFormat     raw;
surfaceFormat raw;

sets
(
    line_centreProfile
    {
        type            uniform;

        axis            distance;
        start           (0   3.80999994277954 7.61999988555908);
        end             (762 3.80999994277954 7.61999988555908);
        nPoints         100;
    }
);

surfaces
(
    plane
    {
        type plane;
        basePoint (381 3.80999994277954 7.61999988555908);
        normalVector (0 1 0);
    }
);

fields
(
    water.alpha
);


// ************************************************************************* //
