/*--------------------------------*- C++ -*----------------------------------*\
| =========                 |                                                 |
| \\      /  F ield         | OpenFOAM: The Open Source CFD Toolbox           |
|  \\    /   O peration     | Version:  4.1                                   |
|   \\  /    A nd           | Web:      www.OpenFOAM.org                      |
|    \\/     M anipulation  |                                                 |
\*---------------------------------------------------------------------------*/
FoamFile
{
    version     2.0;
    format      ascii;
    class       volScalarField;
    object      p;
}
// * * * * * * * * * * * * * * * * * * * * * * * * * * * * * * * * * * * * * //

dimensions      [1 -1 -2 0 0 0 0];

internalField   uniform 6.869e6;

boundaryField
{
    top
    {
       	type            porousIsoKFixedGradientPressure;
	    value		    uniform 0;
    }
    "(bottom|right)"
    {
        type            symmetry;   value   uniform 0;
    }	
    fault
    {
        type            zeroGradient;
    }
    left
    {
       	type            porousIsoKFixedGradientPressure;
	    value		    uniform 0;
    }
    frontAndBack
    {
        type            empty;
    }
}

// ************************************************************************* //
