/*--------------------------------*- C++ -*----------------------------------*\
| =========                 |                                                 |
| \\      /  F ield         | OpenFOAM: The Open Source CFD Toolbox           |
|  \\    /   O peration     | Version:  4.1                                   |
|   \\  /    A nd           | Web:      www.OpenFOAM.org                      |
|    \\/     M anipulation  |                                                 |
\*---------------------------------------------------------------------------*/
FoamFile
{
    version     2.0;
    format      ascii;
    class       dictionary;
    location    "system";
    object      controlDict;
}
// * * * * * * * * * * * * * * * * * * * * * * * * * * * * * * * * * * * * * //

application     impesFoam;

startFrom       latestTime;

startTime       0;

stopAt          endTime;

nDays            800; // Number of days to simulate

endTime         69120000;

deltaT          86400;

writeControl    adjustableRunTime;

writeInterval   8640000;

purgeWrite      0;

writeFormat     ascii;

writePrecision  6;

writeCompression off;

timeFormat      general;

timePrecision   6;

runTimeModifiable yes;

CFL            Courant;

maxCo           0.75;
//maxCo           0.10;

dSmax           1;
//dSmax           0.01;// needed with capillary effect

maxDeltaT  86400; // 1day

libs
(
    "libreservoirBCs.so"
);

// ************************************************************************* //
