/*--------------------------------*- C++ -*----------------------------------*\
| =========                 |                                                 |
| \\      /  F ield         | OpenFOAM: The Open Source CFD Toolbox           |
|  \\    /   O peration     | Version:  4.1                                   |
|   \\  /    A nd           | Web:      www.OpenFOAM.com                      |
|    \\/     M anipulation  |                                                 |
\*---------------------------------------------------------------------------*/
FoamFile
{
    version     2.0;
    format      ascii;
    class       dictionary;
    location    "system";
    object      fvSchemes;
}
// * * * * * * * * * * * * * * * * * * * * * * * * * * * * * * * * * * * * * //

ddtSchemes
{
    default         Euler;
}

gradSchemes
{
    default         Gauss linear;
}

divSchemes
{
    default         none;
}

laplacianSchemes
{
    default         	Gauss linear corrected;;
}

interpolationSchemes
{
    default		linear;
    K			harmonic;
    pc		    linear;
    krn	        upwind oil.phi;
    krw         upwind water.phi;
    flux(U)     linear;
}

snGradSchemes
{
    default         corrected;
}

fluxRequired
{
    default         no;
    p           ;
}


// ************************************************************************* //
