/*--------------------------------*- C++ -*----------------------------------*\
  | =========                 |                                                 |
  | \\      /  F ield         | OpenFOAM: The Open Source CFD Toolbox           |
  |  \\    /   O peration     | Version:  4.1                                   |
  |   \\  /    A nd           | Web:      www.OpenFOAM.com                      |
  |    \\/     M anipulation  |                                                 |
  \*---------------------------------------------------------------------------*/
FoamFile
{
  version     2.0;
  format      ascii;
  class       dictionary;
  location    "constant";
  object      transportProperties;
}
// * * * * * * * * * * * * * * * * * * * * * * * * * * * * * * * * * * * * * //

phases (water oil);
//phase.a
oil
{
    nu	    nu [1 -1 -1 0 0 0 0]	1.76e-5;
    rho	    rho [1 -3 0 0 0 0 0] 	1e0;
    mu	    mu [1 -1 -1 0 0 0 0]	1.76e-5;
    wettingStatus nonWetting;
}
	
//phase.b
water
{
    nu	    nu [1 -1 -1 0 0 0 0]	1e-6;
    rho	    rho [1 -3 0 0 0 0 0] 	1e3;
    mu	    mu [1 -1 -1 0 0 0 0]	1e-3;
}

//// relative permeability model ////

relativePermeabilityModel   BrooksCorey;
capillaryPressureModel      BrooksCorey;

BrooksCoreyCoeffs
{
    // Relative permeability
    Swmin		0.001;
    Swmax		0.999;
    n           3;
    krSwmax     1;
    krnmax      1;

    // pc 
    pcwater.alphamin	    0.0009;
    pcwater.alphamax		$Swmax;
    pc0         500;
    alpha	    0.2;	
}

// ************************************************************************* //
