/*--------------------------------*- C++ -*----------------------------------*\
| =========                 |                                                 |
| \\      /  F ield         | OpenFOAM: The Open Source CFD Toolbox           |
|  \\    /   O peration     | Version:  4.1                                   |
|   \\  /    A nd           | Web:      www.OpenFOAM.org                      |
|    \\/     M anipulation  |                                                 |
\*---------------------------------------------------------------------------*/
FoamFile
{
    version     2.0;
    format      ascii;
    class       dictionary;
    location    "constant";
    object      wellsProperties;
}
// * * * * * * * * * * * * * * * * * * * * * * * * * * * * * * * * * * * * * //

// Planned senario

wellModel   PeacemanWellModel;


wells 
(
    PROD0
    {
        flowRate            constant 1e-3;
        orientation         verticalWell;
        position            (0 45.5 0.5);
    }
    INJE0
    {
        flowRate            constant 0.5e-3;
        position            (-45.5 -45.5 0.5); // Ignored if well appears in a group below
        orientation         verticalWell;  // or horizontalWell [Not implemented]
        type                injection;  // production is default
        operational         on;   // off to turn off well [Not implemented]
    }
    INJE1
    {
        flowRate            table ((0 0.5e-3) (77.76e6 0));
        position            (-45.5 -45.5 0.5); // Ignored if well appears in a group below
        position            (45.5 -45.5 0.5); // Ignored if well appears in a group below
        orientation         verticalWell;  // or horizontalWell [Not implemented]
        type                injection;  // production is default
        operational         on;   // off to turn off well [Not implemented]
    }
);

wellsPlacement (
);

// ************************************************************************* //
