/*--------------------------------*- C++ -*----------------------------------*\
| =========                 |                                                |
| \\      /  F ield         | cfMesh: A library for mesh generation          | 
|  \\    /   O peration     |                                                |
|   \\  /    A nd           | Author: Franjo Juretic                         | 
|    \\/     M anipulation  | E-mail: franjo.juretic@c-fields.com            |
\*---------------------------------------------------------------------------*/

FoamFile
{
    version   2.0;
    format    ascii;
    class     dictionary;
    location  "system";
    object    meshDict;
}

// * * * * * * * * * * * * * * * * * * * * * * * * * * * * * * * * * * * * * //

surfaceFile "constant/triSurfaces/solid.stl";

maxCellSize 2;
minCellSize 0.5;

//boundaryCellSize $minCellSize;


//boundaryLayers
//{
//    nLayers 0;
//    thicknessRatio 1.4;
//
//    maxFirstLayerThickness 1;
//}

//keepCellsIntersectingPatches
//{
//    fault
//    {
//        keepCells 1;
//    }
//}
//
//surfaceMeshRefinement
//{
//    impermeable
//    {
//        surfaceFile "constant/triSurfaces/impermeable.stl";
//        additionalRefinementLevels 1;
//        refinementThickness 5;   
//    }
//}


renameBoundary
{
    defaultType		empty;
    defaultName     frontAndBack;

    newPatchNames
    {
        top
        {
            newName     top;
            type     patch;
        }
        bottom
        {
            newName     bottom;
            type     symmetry;
        }
        left
        {
            newName     left;
            type     patch;
        }
        right
        {
            newName     right;
            type     symmetry;
        }
        fault
        {
            newName     fault;
            type     wall;
        }
}
             
   
 // ************************************************************************* //
