/*--------------------------------*- C++ -*----------------------------------*\
| =========                 |                                                |
| \\      /  F ield         | cfMesh: A library for mesh generation          | 
|  \\    /   O peration     |                                                |
|   \\  /    A nd           | Author: Franjo Juretic                         | 
|    \\/     M anipulation  | E-mail: franjo.juretic@c-fields.com            |
\*---------------------------------------------------------------------------*/

FoamFile
{
    version   2.0;
    format    ascii;
    class     dictionary;
    location  "system";
    object    meshDict;
}

// * * * * * * * * * * * * * * * * * * * * * * * * * * * * * * * * * * * * * //

surfaceFile "constant/triSurfaces/solid.stl";

maxCellSize 1;
minCellSize 0.3;

boundaryCellSize $minCellSize;


boundaryLayers
{
    nLayers 2;
    thicknessRatio 1.4;

    maxFirstLayerThickness 1;

    patchBoundaryLayers
    {
        fault
        {
            allowDiscontinuity 1;
            nLayers 4;
            thicknessRatio 1.5;
        }
    }
}

renameBoundary
{
    defaultType		empty;
    defaultName     frontAndBack;

    newPatchNames
    {
        top
        {
            newName     top;
            newType     patch;
        }
    	bottom
        {
            newName     bottom;
            newType     patch;
        }
        right
        {
            newName     right;
            newType     patch;
        }
        left
        {
            newName     left;
            newType     patch;
        }
        fault
        {
            newName     fault;
            newType     wall;
        }
    }
}
             
   
 // ************************************************************************* //
